
          11280714432D 1   1.00000     0.00000     0

 24 27  0     0  0            999 V2000
    5.4125   -2.6750    0.0000 C   0  0  0  0  0  0           0  0  0
    4.7042   -3.9167    0.0000 N   0  0  3  0  0  0           0  0  0
    3.9875   -2.6792    0.0000 C   0  0  0  0  0  0           0  0  0
    3.9875   -3.5042    0.0000 C   0  0  0  0  0  0           0  0  0
    4.6917   -2.2667    0.0000 C   0  0  0  0  0  0           0  0  0
    5.4167   -3.5042    0.0000 C   0  0  0  0  0  0           0  0  0
    3.2667   -3.9250    0.0000 C   0  0  0  0  0  0           0  0  0
    2.5542   -3.5125    0.0000 C   0  0  0  0  0  0           0  0  0
    4.7042   -4.7417    0.0000 C   0  0  3  0  0  0           0  0  0
    3.2667   -2.2667    0.0000 C   0  0  0  0  0  0           0  0  0
    6.1250   -2.2542    0.0000 C   0  0  0  0  0  0           0  0  0
    2.5542   -2.6875    0.0000 C   0  0  0  0  0  0           0  0  0
    1.8417   -3.9250    0.0000 N   0  0  3  0  0  0           0  0  0
    4.2917   -5.4542    0.0000 C   0  0  0  0  0  0           0  0  0
    5.1167   -5.4542    0.0000 C   0  0  0  0  0  0           0  0  0
    4.6917   -1.4417    0.0000 O   0  0  0  0  0  0           0  0  0
    0.4167   -4.7417    0.0000 N   0  0  0  0  0  0           0  0  0
    6.1167   -1.4292    0.0000 O   0  0  0  0  0  0           0  0  0
    1.8417   -2.2750    0.0000 F   0  0  0  0  0  0           0  0  0
    6.8417   -2.6667    0.0000 O   0  0  0  0  0  0           0  0  0
    1.8500   -4.7417    0.0000 C   0  0  0  0  0  0           0  0  0
    1.1292   -3.5042    0.0000 C   0  0  0  0  0  0           0  0  0
    0.4167   -3.9167    0.0000 C   0  0  0  0  0  0           0  0  0
    1.1292   -5.1542    0.0000 C   0  0  0  0  0  0           0  0  0
  2  6  1  0     0  0
  3  5  1  0     0  0
  4  2  1  0     0  0
  5  1  1  0     0  0
  6  1  2  0     0  0
  7  4  2  0     0  0
  8  7  1  0     0  0
  9  2  1  0     0  0
 10  3  2  0     0  0
 11  1  1  0     0  0
 12 10  1  0     0  0
 13  8  1  0     0  0
 14  9  1  0     0  0
 15  9  1  0     0  0
 16  5  2  0     0  0
 17 23  1  0     0  0
 18 11  2  0     0  0
 19 12  1  0     0  0
 20 11  1  0     0  0
 21 13  1  0     0  0
 22 13  1  0     0  0
 23 22  1  0     0  0
 24 21  1  0     0  0
  3  4  1  0     0  0
 15 14  1  0     0  0
 12  8  2  0     0  0
 24 17  1  0     0  0
M  END

$$$$
