
  Marvin  02251010042D          

 26 28  0  0  1  0            999 V2000
    0.6673    0.5269    0.0000 C   0  0  2  0  0  0  0  0  0  0  0  0
    0.6673   -0.2981    0.0000 C   0  0  0  0  0  0  0  0  0  0  0  0
    1.4923   -0.2981    0.0000 N   0  0  0  0  0  0  0  0  0  0  0  0
    1.4923    0.5269    0.0000 C   0  0  2  0  0  0  0  0  0  0  0  0
    2.2769   -0.5531    0.0000 C   0  0  2  0  0  0  0  0  0  0  0  0
    2.7619    0.1144    0.0000 C   0  0  0  0  0  0  0  0  0  0  0  0
    2.2769    0.7818    0.0000 S   0  0  0  0  0  0  0  0  0  0  0  0
    3.4806   -0.2906    0.0000 C   0  0  0  0  0  0  0  0  0  0  0  0
    3.4806    0.5194    0.0000 C   0  0  0  0  0  0  0  0  0  0  0  0
    2.5319   -1.3377    0.0000 C   0  0  0  0  0  0  0  0  0  0  0  0
    3.3388   -1.5092    0.0000 O   0  0  0  0  0  0  0  0  0  0  0  0
    1.9798   -1.9508    0.0000 O   0  0  0  0  0  0  0  0  0  0  0  0
   -0.0472    0.9394    0.0000 N   0  0  0  0  0  0  0  0  0  0  0  0
   -0.7616    0.5269    0.0000 C   0  0  0  0  0  0  0  0  0  0  0  0
   -0.7616   -0.2981    0.0000 O   0  0  0  0  0  0  0  0  0  0  0  0
   -1.4761    0.9394    0.0000 C   0  0  1  0  0  0  0  0  0  0  0  0
   -2.1906    0.5269    0.0000 C   0  0  0  0  0  0  0  0  0  0  0  0
   -1.4761    1.7644    0.0000 N   0  0  0  0  0  0  0  0  0  0  0  0
   -2.9050    0.9394    0.0000 C   0  0  0  0  0  0  0  0  0  0  0  0
   -3.6195    0.5269    0.0000 C   0  0  0  0  0  0  0  0  0  0  0  0
   -3.6195   -0.2981    0.0000 C   0  0  0  0  0  0  0  0  0  0  0  0
   -2.9050   -0.7106    0.0000 C   0  0  0  0  0  0  0  0  0  0  0  0
   -2.1906   -0.2981    0.0000 C   0  0  0  0  0  0  0  0  0  0  0  0
   -4.3340   -0.7106    0.0000 O   0  0  0  0  0  0  0  0  0  0  0  0
    0.0840   -0.8815    0.0000 O   0  0  0  0  0  0  0  0  0  0  0  0
    1.4923    1.3519    0.0000 H   0  0  0  0  0  0  0  0  0  0  0  0
  1  2  1  0  0  0  0
  2  3  1  0  0  0  0
  4  3  1  0  0  0  0
  4  1  1  0  0  0  0
  3  5  1  0  0  0  0
  5  6  1  0  0  0  0
  6  7  1  0  0  0  0
  4  7  1  0  0  0  0
  6  8  1  0  0  0  0
  6  9  1  0  0  0  0
  5 10  1  6  0  0  0
 10 11  1  0  0  0  0
 10 12  2  0  0  0  0
  1 13  1  1  0  0  0
 13 14  1  0  0  0  0
 14 15  2  0  0  0  0
 14 16  1  0  0  0  0
 16 17  1  0  0  0  0
 16 18  1  1  0  0  0
 17 19  2  0  0  0  0
 19 20  1  0  0  0  0
 20 21  2  0  0  0  0
 21 22  1  0  0  0  0
 22 23  2  0  0  0  0
 17 23  1  0  0  0  0
 21 24  1  0  0  0  0
  2 25  2  0  0  0  0
  4 26  1  6  0  0  0
M  END

$$$$
