
  Ketcher 10042410132D 1   1.00000     0.00000     0

 41 44  0     1  0            999 V2000
    3.0411   -0.9510    0.0000 C   0  0  0  0  0  0  0  0  0  0  0  0
    2.0411   -0.9510    0.0000 C   0  0  0  0  0  0  0  0  0  0  0  0
    3.5411   -1.8171    0.0000 C   0  0  0  0  0  0  0  0  0  0  0  0
    3.5410   -3.5492    0.0000 C   0  0  0  0  0  0  0  0  0  0  0  0
    3.0410   -2.6831    0.0000 C   0  0  0  0  0  0  0  0  0  0  0  0
    4.5411   -1.8171    0.0000 C   0  0  0  0  0  0  0  0  0  0  0  0
    5.0410   -2.6831    0.0000 C   0  0  0  0  0  0  0  0  0  0  0  0
    1.5411   -1.8171    0.0000 C   0  0  0  0  0  0  0  0  0  0  0  0
    0.5410   -3.5492    0.0000 C   0  0  0  0  0  0  0  0  0  0  0  0
    0.0410   -2.6831    0.0000 C   0  0  0  0  0  0  0  0  0  0  0  0
    0.5411   -1.8171    0.0000 C   0  0  0  0  0  0  0  0  0  0  0  0
    2.0410   -2.6831    0.0000 C   0  0  0  0  0  0  0  0  0  0  0  0
    1.5410   -3.5492    0.0000 C   0  0  0  0  0  0  0  0  0  0  0  0
    4.5410   -3.5491    0.0000 C   0  0  0  0  0  0  0  0  0  0  0  0
    5.0410   -4.4151    0.0000 F   0  0  0  0  0  0  0  0  0  0  0  0
    3.3501    0.0000    0.0000 N   0  0  0  0  0  0  0  0  0  0  0  0
    4.2161    0.5000    0.0000 C   0  0  0  0  0  0  0  0  0  0  0  0
    5.0821    0.0000    0.0000 C   0  0  0  0  0  0  0  0  0  0  0  0
    6.8142    0.0000    0.0000 C   0  0  0  0  0  0  0  0  0  0  0  0
    8.5462    0.0000    0.0000 C   0  0  0  0  0  0  0  0  0  0  0  0
   10.2782    0.0000    0.0000 O   0  0  0  0  0  0  0  0  0  0  0  0
    9.4122    0.5000    0.0000 C   0  0  0  0  0  0  0  0  0  0  0  0
    9.4122    1.5000    0.0000 O   0  0  0  0  0  0  0  0  0  0  0  0
    7.6801    0.5000    0.0000 C   0  0  0  0  0  0  0  0  0  0  0  0
    7.6801    1.5000    0.0000 O   0  0  0  0  0  0  0  0  0  0  0  0
    5.9481    0.5000    0.0000 C   0  0  0  0  0  0  0  0  0  0  0  0
    5.9481    1.5000    0.0000 O   0  0  0  0  0  0  0  0  0  0  0  0
    1.7320    0.0000    0.0000 C   0  0  0  0  0  0  0  0  0  0  0  0
    0.0000    0.0000    0.0000 N   0  0  0  0  0  0  0  0  0  0  0  0
   -0.8661    0.5000    0.0000 C   0  0  0  0  0  0  0  0  0  0  0  0
   -1.7321   -0.0001    0.0000 C   0  0  0  0  0  0  0  0  0  0  0  0
   -2.5981    0.5000    0.0000 C   0  0  0  0  0  0  0  0  0  0  0  0
   -2.5981    1.5000    0.0000 C   0  0  0  0  0  0  0  0  0  0  0  0
   -1.7321    2.0000    0.0000 C   0  0  0  0  0  0  0  0  0  0  0  0
   -0.8661    1.5000    0.0000 C   0  0  0  0  0  0  0  0  0  0  0  0
    0.8661    0.5000    0.0000 C   0  0  0  0  0  0  0  0  0  0  0  0
    0.8661    1.5000    0.0000 O   0  0  0  0  0  0  0  0  0  0  0  0
    2.5411    0.5878    0.0000 C   0  0  0  0  0  0  0  0  0  0  0  0
    1.6750    2.0878    0.0000 C   0  0  0  0  0  0  0  0  0  0  0  0
    2.5411    1.5878    0.0000 C   0  0  0  0  0  0  0  0  0  0  0  0
    3.4070    2.0878    0.0000 C   0  0  0  0  0  0  0  0  0  0  0  0
 38 16  1  0     0  0
 38 28  2  0     0  0
 16  1  1  0     0  0
  1  2  2  0     0  0
  2 28  1  0     0  0
  1  3  1  0     0  0
  2  8  1  0     0  0
  5  3  2  0     0  0
  3  6  1  0     0  0
  4  5  1  0     0  0
  4 14  2  0     0  0
  6  7  2  0     0  0
  7 14  1  0     0  0
 11  8  2  0     0  0
  8 12  1  0     0  0
  9 10  2  0     0  0
  9 13  1  0     0  0
 10 11  1  0     0  0
 12 13  2  0     0  0
 14 15  1  0     0  0
 16 17  1  0     0  0
 17 18  1  0     0  0
 18 26  1  0     0  0
 26 19  1  0     0  0
 19 24  1  0     0  0
 24 20  1  0     0  0
 20 22  1  0     0  0
 22 21  1  0     0  0
 22 23  2  0     0  0
 24 25  1  1     0  0
 26 27  1  1     0  0
 28 36  1  0     0  0
 36 29  1  0     0  0
 29 30  1  0     0  0
 35 30  2  0     0  0
 31 30  1  0     0  0
 31 32  2  0     0  0
 32 33  1  0     0  0
 33 34  2  0     0  0
 34 35  1  0     0  0
 36 37  2  0     0  0
 38 40  1  0     0  0
 40 39  1  0     0  0
 40 41  1  0     0  0
M  END

$$$$
