
  Mrv0541 06161420572D          

 37 41  0  0  0  0            999 V2000
   -0.7145    0.4125    0.0000 C   0  0  0  0  0  0  0  0  0  0  0  0
    0.0000    0.8250    0.0000 C   0  0  0  0  0  0  0  0  0  0  0  0
    0.0000   -0.8250    0.0000 C   0  0  0  0  0  0  0  0  0  0  0  0
    0.7145   -0.4125    0.0000 C   0  0  0  0  0  0  0  0  0  0  0  0
   -0.7145   -0.4125    0.0000 C   0  0  0  0  0  0  0  0  0  0  0  0
    0.7145    0.4125    0.0000 C   0  0  0  0  0  0  0  0  0  0  0  0
   -1.4289   -0.8251    0.0000 C   0  0  0  0  0  0  0  0  0  0  0  0
   -2.8578    0.8249    0.0000 C   0  0  0  0  0  0  0  0  0  0  0  0
   -3.5723   -0.4126    0.0000 C   0  0  0  0  0  0  0  0  0  0  0  0
   -2.8578   -0.8251    0.0000 C   0  0  0  0  0  0  0  0  0  0  0  0
   -2.1434    0.4125    0.0000 C   0  0  0  0  0  0  0  0  0  0  0  0
   -2.1434   -0.4126    0.0000 N   0  0  0  0  0  0  0  0  0  0  0  0
   -3.5723    0.4124    0.0000 N   0  0  0  0  0  0  0  0  0  0  0  0
   -4.2868    0.8249    0.0000 C   0  0  0  0  0  0  0  0  0  0  0  0
    1.4288    1.6500    0.0000 O   0  0  0  0  0  0  0  0  0  0  0  0
    1.4289    0.8250    0.0000 C   0  0  0  0  0  0  0  0  0  0  0  0
    2.1433    0.4126    0.0000 N   0  0  0  0  0  0  0  0  0  0  0  0
    2.8577    0.8251    0.0000 C   0  0  0  0  0  0  0  0  0  0  0  0
    4.2867    0.8251    0.0000 C   0  0  0  0  0  0  0  0  0  0  0  0
    3.5722    0.4126    0.0000 C   0  0  0  0  0  0  0  0  0  0  0  0
    2.8577    1.6500    0.0000 C   0  0  0  0  0  0  0  0  0  0  0  0
    4.2867    1.6501    0.0000 C   0  0  0  0  0  0  0  0  0  0  0  0
    5.0010    2.0626    0.0000 C   0  0  0  0  0  0  0  0  0  0  0  0
    3.5722    2.0625    0.0000 C   0  0  0  0  0  0  0  0  0  0  0  0
    3.5721    2.8875    0.0000 N   0  0  0  0  0  0  0  0  0  0  0  0
    2.8577    3.2999    0.0000 C   0  0  0  0  0  0  0  0  0  0  0  0
    1.4287    3.3000    0.0000 C   0  0  0  0  0  0  0  0  0  0  0  0
    1.4286    4.1249    0.0000 C   0  0  0  0  0  0  0  0  0  0  0  0
    2.1431    4.5374    0.0000 C   0  0  0  0  0  0  0  0  0  0  0  0
    2.1431    5.3624    0.0000 C   0  0  0  0  0  0  0  0  0  0  0  0
    2.8575    5.7749    0.0000 C   0  0  0  0  0  0  0  0  0  0  0  0
    1.4286    5.7749    0.0000 C   0  0  0  0  0  0  0  0  0  0  0  0
    1.4286    6.5998    0.0000 C   0  0  0  0  0  0  0  0  0  0  0  0
    2.1430    7.0123    0.0000 C   0  0  0  0  0  0  0  0  0  0  0  0
    2.1433    2.8875    0.0000 N   0  0  0  0  0  0  0  0  0  0  0  0
    2.8576    4.1249    0.0000 N   0  0  0  0  0  0  0  0  0  0  0  0
    2.8575    6.5999    0.0000 N   0  0  0  0  0  0  0  0  0  0  0  0
  2  1  1  0  0  0  0
  3  4  2  0  0  0  0
  3  5  1  0  0  0  0
  1  5  2  0  0  0  0
  5  7  1  0  0  0  0
  6  2  2  0  0  0  0
  4  6  1  0  0  0  0
  6 16  1  0  0  0  0
  7 12  1  0  0  0  0
  8 13  1  0  0  0  0
  8 11  1  0  0  0  0
 13  9  1  0  0  0  0
  9 10  1  0  0  0  0
 10 12  1  0  0  0  0
 12 11  1  0  0  0  0
 13 14  1  0  0  0  0
 16 15  2  0  0  0  0
 16 17  1  0  0  0  0
 17 18  1  0  0  0  0
 18 20  1  0  0  0  0
 21 18  2  0  0  0  0
 19 22  1  0  0  0  0
 20 19  2  0  0  0  0
 24 21  1  0  0  0  0
 22 23  1  0  0  0  0
 24 22  2  0  0  0  0
 24 25  1  0  0  0  0
 25 26  1  0  0  0  0
 26 35  2  0  0  0  0
 26 36  1  0  0  0  0
 35 27  1  0  0  0  0
 27 28  2  0  0  0  0
 28 29  1  0  0  0  0
 29 36  2  0  0  0  0
 29 30  1  0  0  0  0
 31 30  2  0  0  0  0
 30 32  1  0  0  0  0
 31 37  1  0  0  0  0
 32 33  2  0  0  0  0
 33 34  1  0  0  0  0
 34 37  2  0  0  0  0
M  END

$$$$
