
  Ketcher 11261910552D 1   1.00000     0.00000     0

 29 32  0     0  0            999 V2000
    7.5156  -25.9992    0.0000 C   0  0  0  0  0  0  0  0  0  0  0  0
    7.5156  -24.9993    0.0000 C   0  0  0  0  0  0  0  0  0  0  0  0
    8.3815  -24.4993    0.0000 C   0  0  0  0  0  0  0  0  0  0  0  0
    9.2475  -24.9993    0.0000 C   0  0  0  0  0  0  0  0  0  0  0  0
    9.2475  -25.9992    0.0000 C   0  0  0  0  0  0  0  0  0  0  0  0
    8.3815  -26.4992    0.0000 C   0  0  0  0  0  0  0  0  0  0  0  0
    6.6495  -26.4992    0.0000 O   0  0  0  0  0  0  0  0  0  0  0  0
    5.7835  -25.9992    0.0000 C   0  0  0  0  0  0  0  0  0  0  0  0
    6.6495  -24.4993    0.0000 O   0  0  0  0  0  0  0  0  0  0  0  0
    5.7835  -24.9993    0.0000 C   0  0  0  0  0  0  0  0  0  0  0  0
   10.1985  -24.6903    0.0000 C   0  0  0  0  0  0  0  0  0  0  0  0
   10.1985  -26.3082    0.0000 C   0  0  0  0  0  0  0  0  0  0  0  0
   10.5075  -23.7393    0.0000 O   0  0  0  0  0  0  0  0  0  0  0  0
   11.6504  -27.0041    0.0000 C   0  0  0  0  0  0  0  0  0  0  0  0
   10.7831  -27.5017    0.0000 C   0  0  0  0  0  0  0  0  0  0  0  0
   10.7803  -28.5017    0.0000 C   0  0  0  0  0  0  0  0  0  0  0  0
   11.6450  -29.0040    0.0000 N   0  0  0  0  0  0  0  0  0  0  0  0
   12.5123  -28.5063    0.0000 C   0  0  0  0  0  0  0  0  0  0  0  0
   12.5150  -27.5065    0.0000 C   0  0  0  0  0  0  0  0  0  0  0  0
   11.6423  -30.0039    0.0000 C   0  0  0  0  0  0  0  0  0  0  0  0
   10.7749  -30.5016    0.0000 C   0  0  0  0  0  0  0  0  0  0  0  0
   10.7722  -31.5015    0.0000 C   0  0  0  0  0  0  0  0  0  0  0  0
    9.9049  -31.9992    0.0000 C   0  0  0  0  0  0  0  0  0  0  0  0
    9.0402  -31.4969    0.0000 C   0  0  0  0  0  0  0  0  0  0  0  0
    9.0430  -30.4969    0.0000 C   0  0  0  0  0  0  0  0  0  0  0  0
    9.9103  -29.9993    0.0000 C   0  0  0  0  0  0  0  0  0  0  0  0
   11.6531  -26.0041    0.0000 C   0  0  0  0  0  0  0  0  0  0  0  0
   10.7863  -25.4993    0.0000 C   0  0  0  0  0  0  0  0  0  0  0  0
   11.6500  -24.9986    0.0000 H   0  0  0  0  0  0  0  0  0  0  0  0
  1  2  2  0     0  0
  2  3  1  0     0  0
  3  4  2  0     0  0
  4  5  1  0     0  0
  5  6  2  0     0  0
  1  6  1  0     0  0
  1  7  1  0     0  0
  7  8  1  0     0  0
  2  9  1  0     0  0
  9 10  1  0     0  0
  4 11  1  0     0  0
 11 28  1  0     0  0
 28 12  1  0     0  0
  5 12  1  0     0  0
 11 13  2  0     0  0
 14 15  1  0     0  0
 15 16  1  0     0  0
 16 17  1  0     0  0
 17 18  1  0     0  0
 18 19  1  0     0  0
 14 19  1  0     0  0
 17 20  1  0     0  0
 20 21  1  0     0  0
 21 22  2  0     0  0
 22 23  1  0     0  0
 23 24  2  0     0  0
 24 25  1  0     0  0
 25 26  2  0     0  0
 21 26  1  0     0  0
 14 27  1  0     0  0
 28 27  1  0     0  0
 28 29  1  0     0  0
M  END

$$$$
