
  Ketcher 06102113332D 1   1.00000     0.00000     0

  9  8  0     0  0            999 V2000
   -3.8636    1.6288    0.0000 N   0  0  0  0  0  0  0  0  0  0  0  0
   -2.9976    0.1288    0.0000 N   0  0  0  0  0  0  0  0  0  0  0  0
   -2.9976    1.1288    0.0000 C   0  0  0  0  0  0  0  0  0  0  0  0
   -2.1316    1.6288    0.0000 N   0  0  0  0  0  0  0  0  0  0  0  0
   -1.2656    0.1288    0.0000 N   0  0  0  0  0  0  0  0  0  0  0  0
   -1.2656    1.1288    0.0000 C   0  0  0  0  0  0  0  0  0  0  0  0
   -0.3995    2.6288    0.0000 C   0  0  0  0  0  0  0  0  0  0  0  0
   -0.3995    1.6288    0.0000 N   0  0  0  0  0  0  0  0  0  0  0  0
    0.4665    1.1288    0.0000 C   0  0  0  0  0  0  0  0  0  0  0  0
  1  3  1  0     0  0
  3  2  2  0     0  0
  3  4  1  0     0  0
  4  6  1  0     0  0
  6  5  2  0     0  0
  6  8  1  0     0  0
  8  7  1  0     0  0
  8  9  1  0     0  0
M  END

$$$$
