
  Marvin  05110911052D          

 22 22  0  0  0  0            999 V2000
   -0.6777    1.2670    0.0000 C   0  0  0  0  0  0  0  0  0  0  0  0
   -1.3921    0.8545    0.0000 C   0  0  1  0  0  0  0  0  0  0  0  0
   -1.3921    0.0295    0.0000 C   0  0  2  0  0  0  0  0  0  0  0  0
   -0.6777   -0.3831    0.0000 C   0  0  1  0  0  0  0  0  0  0  0  0
    0.0368    0.0295    0.0000 C   0  0  0  0  0  0  0  0  0  0  0  0
    0.0368    0.8545    0.0000 C   0  0  0  0  0  0  0  0  0  0  0  0
    0.7513    1.2670    0.0000 C   0  0  0  0  0  0  0  0  0  0  0  0
   -0.6777   -1.2081    0.0000 O   0  0  0  0  0  0  0  0  0  0  0  0
   -2.1066   -0.3830    0.0000 N   0  0  0  0  0  0  0  0  0  0  0  0
   -2.1066    1.2670    0.0000 N   0  0  0  0  0  0  0  0  0  0  0  0
    0.7513    2.0920    0.0000 O   0  0  0  0  0  0  0  0  0  0  0  0
    1.4657    0.8545    0.0000 O   0  0  0  0  0  0  0  0  0  0  0  0
    1.4657    0.0295    0.0000 C   0  0  0  0  0  0  0  0  0  0  0  0
    2.1802   -0.3830    0.0000 C   0  0  0  0  0  0  0  0  0  0  0  0
    0.0368   -1.6206    0.0000 C   0  0  0  0  0  0  0  0  0  0  0  0
    0.0368   -2.4456    0.0000 C   0  0  0  0  0  0  0  0  0  0  0  0
    0.7513   -1.2081    0.0000 C   0  0  0  0  0  0  0  0  0  0  0  0
    0.7513   -0.3831    0.0000 C   0  0  0  0  0  0  0  0  0  0  0  0
    0.7513   -2.8581    0.0000 C   0  0  0  0  0  0  0  0  0  0  0  0
   -2.1066   -1.2080    0.0000 C   0  0  0  0  0  0  0  0  0  0  0  0
   -2.8211   -1.6205    0.0000 C   0  0  0  0  0  0  0  0  0  0  0  0
   -1.3922   -1.6205    0.0000 O   0  0  0  0  0  0  0  0  0  0  0  0
  1  2  1  0  0  0  0
  1  6  1  0  0  0  0
  2  3  1  0  0  0  0
  3  4  1  0  0  0  0
  4  5  1  0  0  0  0
  5  6  2  0  0  0  0
  6  7  1  0  0  0  0
  4  8  1  1  0  0  0
  3  9  1  6  0  0  0
  2 10  1  1  0  0  0
  7 11  2  0  0  0  0
  7 12  1  0  0  0  0
 12 13  1  0  0  0  0
 13 14  1  0  0  0  0
  8 15  1  0  0  0  0
 15 16  1  0  0  0  0
 15 17  1  0  0  0  0
 17 18  1  0  0  0  0
 16 19  1  0  0  0  0
  9 20  1  0  0  0  0
 20 21  1  0  0  0  0
 20 22  2  0  0  0  0
M  END

$$$$
