
  Ketcher 08281516102D 1   1.00000     0.00000     0

 23 25  0     1  0            999 V2000
    8.4258   -5.2526    0.0000 C   0  0  0  0  0  0  0  0  0  0  0  0
    7.5598   -5.7526    0.0000 C   0  0  0  0  0  0  0  0  0  0  0  0
    7.5598   -6.7525    0.0000 C   0  0  0  0  0  0  0  0  0  0  0  0
    8.4258   -7.2525    0.0000 C   0  0  0  0  0  0  0  0  0  0  0  0
    9.2919   -5.7526    0.0000 C   0  0  0  0  0  0  0  0  0  0  0  0
    9.2919   -6.7525    0.0000 C   0  0  0  0  0  0  0  0  0  0  0  0
   11.0240   -5.7526    0.0000 C   0  0  0  0  0  0  0  0  0  0  0  0
   12.7560   -5.7526    0.0000 C   0  0  0  0  0  0  0  0  0  0  0  0
   14.4881   -5.7526    0.0000 C   0  0  0  0  0  0  0  0  0  0  0  0
   11.8901   -5.2526    0.0000 C   0  0  0  0  0  0  0  0  0  0  0  0
   11.8901   -4.2525    0.0000 C   0  0  0  0  0  0  0  0  0  0  0  0
   11.8901   -2.2525    0.0000 C   0  0  0  0  0  0  0  0  0  0  0  0
   11.0240   -2.7526    0.0000 C   0  0  0  0  0  0  0  0  0  0  0  0
   11.0240   -3.7525    0.0000 C   0  0  0  0  0  0  0  0  0  0  0  0
   12.7560   -3.7525    0.0000 C   0  0  0  0  0  0  0  0  0  0  0  0
   12.7560   -2.7526    0.0000 C   0  0  0  0  0  0  0  0  0  0  0  0
   10.1579   -5.2526    0.0000 C   0  0  0  0  0  0  0  0  0  0  0  0
   10.1579   -4.2525    0.0000 O   0  0  0  0  0  0  0  0  0  0  0  0
   10.1579   -7.2525    0.0000 O   0  0  0  0  0  0  0  0  0  0  0  0
   11.0240   -6.7525    0.0000 C   0  0  0  0  0  0  0  0  0  0  0  0
   11.8901   -7.2525    0.0000 O   0  0  0  0  0  0  0  0  0  0  0  0
   13.6221   -5.2526    0.0000 C   0  0  0  0  0  0  0  0  0  0  0  0
   13.6221   -4.2525    0.0000 O   0  0  0  0  0  0  0  0  0  0  0  0
  1  2  2  0     0  0
  1  5  1  0     0  0
  2  3  1  0     0  0
  3  4  2  0     0  0
  4  6  1  0     0  0
 17  5  1  0     0  0
  6  5  2  0     0  0
  6 19  1  0     0  0
 17  7  2  0     0  0
 19 20  1  0     0  0
 20  7  1  0     0  0
  7 10  1  0     0  0
 10  8  1  0     0  0
  8 22  1  0     0  0
 22  9  1  0     0  0
 10 11  1  6     0  0
 14 11  2  0     0  0
 11 15  1  0     0  0
 12 13  2  0     0  0
 12 16  1  0     0  0
 13 14  1  0     0  0
 15 16  2  0     0  0
 17 18  1  0     0  0
 20 21  2  0     0  0
 22 23  2  0     0  0
M  END

$$$$
